[General]
sim-time-limit = 100s


[LEACHPROTOCOL]
network = LeachProtocolNetwork
*.numNodes = 5
**.arp.typename = "GlobalArp"
#**.networkLayer.manetrouting.typename = "ManetRouting"

# Radio medium configuration
*.radioMedium.typename = "ApskScalarRadioMedium"
*.radioMedium.backgroundNoise.power = -90dBm
*.radioMedium.mediumLimitCache.centerFrequency = 2GHz
*.radioMedium.pathLoss.typename = "LogNormalShadowing" # path loss model that takes into account obstacles, not assuming solely free space propagation 
*.radioMedium.obstacleLoss.typename = "DielectricObstacleLoss" # adding obstacle-based attentuation



# Network area constraints
**.constraintAreaMinX = 100m
**.constraintAreaMaxX = 480m
**.constraintAreaMinY = 100m
**.constraintAreaMaxY = 800m

**.hasStatus = true

# Address configuration
*.configurator.config = xmldoc("address.xml")

# Node configuration
*.host*.typename = "LEACHnode"
*.host*.hasStatus = true
*.host*.LEACHnode.clusterHeadPercentage = 0.5

# Base station configuration - corrected capitalization
*.baseStation.typename = "LEACHbs"
.*baseStation*.hasStatus = true

# Base statiomn energy storage config
*.baseStation*.energyStorage.typename = "SimpleEpEnergyStorage"
*.baseStation*.energyStorage.nominalCapacity = 600J



# Energy storage configuration
*.visualizer.energyStorageVisualizer.displayEnergyStorages = true
**.host*.energyStorage.nominalCapacity = 300J
*.host*.energyStorage.typename = "SimpleEpEnergyStorage"
*.host[*].energyStorage.initialCapacity = 50J
*.host[*].energyManagement.typename = "SimpleEpEnergyManagement"
*.host[*].energyManagement.nodeShutdownCapacity = 1J

# Mobility configuration
*.host*.mobility.typename = "StationaryMobility"
*.host[*].mobility.initFromDisplayString = false

# Base station position (center of network)
*.baseStation.mobility.typename = "StationaryMobility"
*.baseStation.mobility.initialX = 290m
*.baseStation.mobility.initialY = 450m
*.baseStation.mobility.initialZ = 0m

# Node radio configuration
*.host*.wlan[0].typename = "Ieee802154NarrowbandInterface"
*.host*.wlan[0].radio.typename = "ApskScalarRadio"
*.host*.wlan[0].radio.centerFrequency = 2GHz
*.host*.wlan[0].radio.bandwidth = 2MHz
*.host*.wlan[0].radio.transmitter.power = 1.4mW
*.host*.wlan[0].radio.transmitter.preambleDuration = 10us
*.host*.wlan[0].radio.transmitter.headerLength = 8B
*.host*.wlan[0].radio.receiver.sensitivity = -85dBm
*.host*.wlan[0].radio.receiver.energyDetection = -85dBm
*.host*.wlan[0].radio.receiver.snirThreshold = 4dB
*.host*.wlan[0].radio.displayCommunicationRange = true
*.host*.wlan[0].radio.displayInterferenceRange = true

# Base station radio configuration with increased power
*.baseStation.wlan[0].typename = "Ieee802154NarrowbandInterface"
*.baseStation.wlan[0].radio.typename = "ApskScalarRadio"
*.baseStation.wlan[0].radio.centerFrequency = 2GHz
*.baseStation.wlan[0].radio.bandwidth = 2MHz
*.baseStation.wlan[0].radio.transmitter.power = 50mW  # Increased power for better coverage
*.baseStation.wlan[0].radio.transmitter.preambleDuration = 10us
*.baseStation.wlan[0].radio.transmitter.headerLength = 8B
*.baseStation.wlan[0].radio.receiver.sensitivity = -85dBm
*.baseStation.wlan[0].radio.receiver.energyDetection = -85dBm
*.baseStation.wlan[0].radio.receiver.snirThreshold = 4dB
*.baseStation.wlan[0].radio.displayCommunicationRange = true
*.baseStation.wlan[0].radio.displayInterferenceRange = true

# Bitrate configuration
*.host*.**.bitrate = 1Mbps
*.baseStation.**.bitrate = 1Mbps

# Energy consumption configuration for nodes
*.host*.wlan[0].radio.energyConsumer.typename = "StateBasedEpEnergyConsumer"
*.host*.wlan[0].radio.energyConsumer.offPowerConsumption = 0mW
*.host*.wlan[0].radio.energyConsumer.sleepPowerConsumption = 1mW
*.host*.wlan[0].radio.energyConsumer.switchingPowerConsumption = 1mW
*.host*.wlan[0].radio.energyConsumer.receiverIdlePowerConsumption = 2mW
*.host*.wlan[0].radio.energyConsumer.receiverBusyPowerConsumption = 5mW
*.host*.wlan[0].radio.energyConsumer.receiverReceivingPowerConsumption = 10mW
*.host*.wlan[0].radio.energyConsumer.transmitterIdlePowerConsumption = 2mW
*.host*.wlan[0].radio.energyConsumer.transmitterTransmittingPowerConsumption = 100mW


# Base station energy consumption config
*.baseStation.wlan[0].radio.energyConsumer.typename = "StateBasedEpEnergyConsumer"
*.baseStation.wlan[0].radio.energyConsumer.offPowerConsumption = 5W
*.baseStation.wlan[0].radio.energyConsumer.sleepPowerConsumption = 10W
*.baseStation.wlan[0].radio.energyConsumer.switchingPowerConsumption = 10W
*.baseStation.wlan[0].radio.energyConsumer.receiverIdlePowerConsumption = 20W
*.baseStation.wlan[0].radio.energyConsumer.receiverBusyPowerConsumption = 50W
*.baseStation.wlan[0].radio.energyConsumer.receiverReceivingPowerConsumption = 50W
*.baseStation.wlan[0].radio.energyConsumer.transmitterIdlePowerConsumption = 50W
*.baseStation.wlan[0].radio.energyConsumer.transmitterTransmittingPowerConsumption = 200W


# Result recording
*.host*.wlan[*].radio.bitErrorRate.result-recording-modes = default,+vector

# Visualization settings for communication ranges
*.visualizer.mediumVisualizer.displaySignals = true
*.visualizer.physicalLinkVisualizer.displayLinks = true
*.visualizer.physicalLinkVisualizer.packetFilter = "LEACH*"

# Additional range visualization options
*.visualizer.mediumVisualizer.signalPropagationAnimationSpeed = 500
*.visualizer.mediumVisualizer.signalTransmissionAnimationSpeed = 50000
*.visualizer.physicalLinkVisualizer.lineStyle = "solid"
*.visualizer.physicalLinkVisualizer.lineWidth = 2

# environment settings
*.physicalEnvironment.config = xmldoc("physical.xml")